Version 4
SHEET 1 1096 1532
WIRE 992 112 960 112
WIRE 288 128 256 128
WIRE 992 144 960 144
WIRE 128 160 80 160
WIRE 288 160 256 160
WIRE 992 176 960 176
WIRE 128 192 80 192
WIRE 288 192 256 192
WIRE 848 192 768 192
WIRE 992 208 960 208
WIRE 128 224 80 224
WIRE 288 224 256 224
WIRE 848 224 768 224
WIRE 992 240 960 240
WIRE 288 256 256 256
WIRE 848 256 768 256
WIRE 992 272 960 272
WIRE 992 304 960 304
WIRE 992 336 960 336
FLAG 80 160 CLK
IOPIN 80 160 In
FLAG 80 224 VDD
IOPIN 80 224 In
FLAG 80 192 in1
IOPIN 80 192 In
FLAG 288 256 RES1
FLAG 288 224 D3
FLAG 288 192 D2
FLAG 288 160 D1
FLAG 288 128 D0
FLAG 768 192 CLK
IOPIN 768 192 In
FLAG 768 256 VDD
IOPIN 768 256 In
FLAG 768 224 in1
IOPIN 768 224 In
FLAG 992 112 out[0]
FLAG 992 144 out[1]
FLAG 992 176 out[2]
FLAG 992 208 out[3]
FLAG 992 240 out[4]
FLAG 992 272 out[5]
FLAG 992 304 out[6]
FLAG 992 336 out[7]
SYMBOL 4Bit_ADC_pipe 192 192 R0
SYMATTR InstName X4
SYMBOL 4Bit_ADC_pipeV2 896 224 R0
SYMATTR InstName X1
TEXT -8 312 Left 2 !VDD VDD 0 DC 15\nVCLK CLK 0 PULSE(0 15 0 1p 1p 1u 2u)
TEXT 0 576 Left 2 !.tran 20u
TEXT -8 608 Left 2 !.options plotwinsize=0
TEXT -8 520 Left 2 !*.save V(vout) V(in1) V(clk) V(d*)\n*.save V(in1) V(vout)
TEXT -8 368 Left 2 !V2 in1 0 pwl (1u 0 1.0001u {15/((2**8)-1) * 100})
TEXT -8 400 Left 2 !V3 in1x 0 PULSE(0 1 0m 32768u 32768u 0m 655.36u)
