Version 4
SHEET 1 2132 820
WIRE -160 -144 -272 -144
WIRE 256 -144 -160 -144
WIRE 256 -64 256 -144
WIRE -80 -48 -224 -48
WIRE 208 -48 -80 -48
WIRE -224 0 -224 -48
WIRE 208 0 176 0
WIRE 176 32 176 0
WIRE 256 80 256 16
WIRE 368 80 256 80
WIRE 528 80 448 80
WIRE 672 80 528 80
WIRE -224 112 -224 80
WIRE 528 144 528 80
WIRE 672 144 672 80
WIRE -272 160 -272 -144
WIRE 256 160 256 80
WIRE -272 272 -272 240
WIRE 256 272 256 224
WIRE 464 272 256 272
WIRE 528 272 528 208
WIRE 528 272 464 272
WIRE 672 272 672 224
WIRE 672 272 528 272
WIRE 464 288 464 272
FLAG -272 272 0
FLAG 464 288 0
FLAG -224 112 0
FLAG 176 32 0
FLAG -160 -144 in
FLAG 672 80 out
FLAG -80 -48 ctrl
SYMBOL voltage -272 144 R0
WINDOW 123 0 0 Left 0
WINDOW 39 0 0 Left 0
SYMATTR InstName Vin
SYMATTR Value 12
SYMBOL sw 256 32 M180
SYMATTR InstName S1
SYMBOL diode 272 224 R180
WINDOW 0 24 64 Left 2
WINDOW 3 24 0 Left 2
SYMATTR InstName D1
SYMBOL ind 352 96 R270
WINDOW 0 32 56 VTop 2
WINDOW 3 5 56 VBottom 2
SYMATTR InstName L1
SYMATTR Value 36.47µ
SYMBOL cap 512 144 R0
SYMATTR InstName C1
SYMATTR Value 5.33µ
SYMBOL res 656 128 R0
SYMATTR InstName RLoad
SYMATTR Value 5
SYMBOL voltage -224 -16 R0
WINDOW 123 0 0 Left 0
WINDOW 39 0 0 Left 0
SYMATTR InstName Vctrl
SYMATTR Value PULSE(0 5 0 0.01u 0.01u 8.33u 20u)
TEXT -280 -656 Left 2 ;Input = 12V *\nOutput = 5V a 1A **\nTs = 20us *            \nTon = 8.33us *\nD = Ton/Ts = 41.65% *\nILoad = Vout / RLoad\nRload = Vout /  ILoad = 5V/1A = 5 Ohms\nF = 1/Ts = 1/20u = 50KHz\nLmin = 29.18uH\nL = Lmin * 1.25 = 29.18uH * 1.25 = 36.47uH\nVripple = 15%\nC = 5.33uF\n;-------------------\nDelta Vout = Vout * Vripple = 5V * 15% = 750mV *\nDelta ILoad = 1.59A *\nI_load_max = 1.795A *\nI_load_min =  0.205A *
TEXT -304 312 Left 2 !.tran 10m
TEXT -136 312 Left 2 !.MODEL          SW              VSWITCH(VON=5V VOFF=0V RON=0.01 ROFF=1MEG)\n.MODEL DSCH D( IS=0.0002 RS=0.05 CJO=5e-10  )
TEXT 336 -752 Left 2 !.meas TRAN v_vin_MAX MAX V(in)\n.meas TRAN v_vout_AVG_TEST AVG V(out)\n.meas TRAN i_iload_AVG_TEST AVG I(Rload)\n;----------------\n; Sugeridas por Jesse\n.meas TRAN T1 FIND time WHEN V(ctrl)=0 rise = 2\n.meas TRAN T2 FIND time WHEN V(ctrl)=0 rise = 3\n.meas TRAN Time_Tus PARAM {T2 - T1}\n \n.meas TRAN T3 FIND time WHEN V(ctrl)=0  rise = 2\n.meas TRAN T4 FIND time WHEN V(ctrl)=0  fall = 2\n.meas TRAN Time_Ton param {T4 - T3}
TEXT 968 -760 Left 2 !;-------------\n; Silvio\n* EVENT MEASURE\n.PARAM threshold  0.5\n.PARAM start_measure 3\n.PARAM final_measure 7\n.PARAM delta_sample  {final_measure-start_measure}\n \n*--------------VCTRL MEASURE---------------------\n.MEAS TRAN v_ctrl_max MAX(V(ctrl))\n.MEAS TRAN t_on\n+TRIG V(ctrl)= V_CTRL_MAX*threshold RISE={start_measure}\n+TARG V(ctrl)= V_CTRL_MAX*threshold FALL={start_measure}\n.MEAS TRAN delta_t1\n+TRIG V(ctrl)= V_CTRL_MAX*threshold RISE={start_measure}\n+TARG V(ctrl)= V_CTRL_MAX*threshold RISE={final_measure}\n.MEAS TRAN ts PARAM delta_t1/delta_sample\n.MEAS TRAN duty_cycle PARAM (t_on/ts)\n.MEAS TRAN fs PARAM  1/ts\n;----------------------------------------------------------------\n \n;.MEAS TRAN time_start_meas FIND time WHEN V(out)<5\n;.MEAS TRAN time_start_meas FIND time CROSS(V(out),5)\n;.MEAS TRAN time_start_meas WHEN time CROSS(V(out),5)\n.MEAS TRAN time_start_meas FIND time WHEN V(out)=5 FALL=1\n;.MEAS TRAN time_start_meas FIND time WHEN V(write)=5 RISE=1\n \n \n; Measurements for Vripple\n.meas TRAN v_vout_max MAX (V(out)) TRIG time={time_start_meas+(20u*50)} TARG time=10m\n \n \n \n.MEAS TRAN v_vout_min MIN(V(out)) TRIG time=5m TARG time=6m\n.MEAS TRAN v_vout_ripple PARAM {v_vout_max - v_vout_min}\n \n; Meas for Vout AVG\n.meas TRAN v_vout_AVG AVG V(out) TRIG time=5m TARG time=6m\n \n \n; Measurements for ILoad_ripple\n.MEAS TRAN i_ILoad_max MAX(I(rload)) TRIG time=5m TARG time=6m\n.MEAS TRAN i_ILoad_min MIN(I(rload)) TRIG time=5m TARG time=6m\n.MEAS TRAN i_ILoad_ripple PARAM {i_ILoad_max - i_ILoad_min}\n \n; Meas for Iout AVG\n.meas TRAN i_ILoad_AVG AVG I(rload) TRIG time=5m TARG time=6m
