Version 4
SHEET 1 880 1532
WIRE 288 128 256 128
WIRE 128 160 80 160
WIRE 288 160 256 160
WIRE 128 192 80 192
WIRE 288 192 256 192
WIRE 128 224 80 224
WIRE 288 224 256 224
WIRE 288 256 256 256
FLAG 80 160 CLK
IOPIN 80 160 In
FLAG 80 224 VDD
IOPIN 80 224 In
FLAG 80 192 in1
IOPIN 80 192 In
FLAG 288 256 RES1
FLAG 288 224 D3
FLAG 288 192 D2
FLAG 288 160 D1
FLAG 288 128 D0
SYMBOL 4Bit_ADC_pipe 192 192 R0
SYMATTR InstName X4
TEXT -8 312 Left 2 !VDD VDD 0 DC 15\nVCLK CLK 0 PULSE(0 15 0 1p 1p 1u 2u)
TEXT 0 576 Left 2 !.tran 20u
TEXT -8 608 Left 2 !.options plotwinsize=0
TEXT -8 520 Left 2 !*.save V(vout) V(in1) V(clk) V(d*)\n*.save V(in1) V(vout)
TEXT -8 368 Left 2 !;V2 in1 0 SINE(0.5 0.5 16784.66796875)\nV2 in1 0 pwl (1u 0 1.0001u 3v)
TEXT -8 416 Left 2 !V3 in1x 0 PULSE(0 1 0m 32768u 32768u 0m 655.36u)
