Version 4
SHEET 1 1632 2568
WIRE 752 0 672 0
WIRE 800 0 752 0
WIRE 672 112 672 0
WIRE 64 128 16 128
WIRE 160 128 64 128
WIRE 512 128 432 128
WIRE 624 128 512 128
WIRE 800 128 800 0
WIRE -64 176 -64 160
WIRE 624 176 528 176
WIRE -64 208 -64 176
WIRE 672 240 672 192
WIRE 528 256 528 176
WIRE 672 272 672 240
WIRE -64 320 -64 288
WIRE 800 336 800 208
WIRE 944 496 944 432
WIRE 800 544 768 544
WIRE 864 544 800 544
WIRE 1088 544 1024 544
WIRE 1136 544 1088 544
WIRE 800 592 768 592
WIRE 864 592 800 592
WIRE 1168 592 1040 592
WIRE 944 688 944 640
WIRE 880 832 768 832
WIRE 960 832 880 832
WIRE 960 864 864 864
WIRE 1200 880 1136 880
WIRE 1232 880 1200 880
WIRE 912 896 880 896
WIRE 960 896 912 896
FLAG 64 128 in[3:0]
FLAG -64 320 0
FLAG -64 176 aux
FLAG 800 592 clk
FLAG 800 544 out_dac
FLAG 1088 544 out_dac2
FLAG 944 688 0
FLAG 944 432 0
FLAG 528 256 0
FLAG 512 128 clk
FLAG 672 240 out_dac
FLAG 800 336 0
FLAG 752 0 out_dac3
FLAG 912 896 clk
FLAG 1200 880 out_dac4
FLAG 864 864 0
FLAG 880 832 out_dac
SYMBOL voltage -64 192 R0
WINDOW 3 -101 -235 VRight 2
WINDOW 123 0 0 Left 0
WINDOW 39 0 0 Left 0
SYMATTR Value PULSE({Voff} {Vcc} {td} {tt} {tt} {T/2} {T})
SYMATTR InstName Vaux
SYMBOL Digital\\dflop 944 496 R0
WINDOW 3 8 12 Left 2
SYMATTR Value Vhigh=5
SYMATTR InstName A1
SYMBOL sw 672 208 M180
SYMATTR InstName S1
SYMATTR Value SRES
SYMBOL SpecialFunctions\\sample 1040 864 R0
WINDOW 3 -64 -52 Left 2
SYMATTR Value Vhigh=15
SYMATTR InstName A2
TEXT 16 536 Left 2 !;A1 out_dac 0 clk pre clr qn out_dac2 0 DFLOP\n \nCH              out_dac3        0               0.01UF\nRH              out_dac3                        0               10MEG\n \nR10             clk 0           1MEG\n \n.param Voff=0\n.param Vcc=5\n.param td=0\n.param tt=1n\n.param T=1m\n \nV0 in[0] 0 PULSE({Voff} {Vcc} {T/2} {tt} {tt} {T*1/2} {T*1})\nV1 in[1] 0 PULSE({Voff} {Vcc} {T/2*2} {tt} {tt} {T*2/2} {T*2})\nV2 in[2] 0 PULSE({Voff} {Vcc} {T/2*4} {tt} {tt} {T*4/2} {T*4})\nV3 in[3] 0 PULSE({Voff} {Vcc} {T/2*8} {tt} {tt} {T*8/2} {T*8})\n \nE21 out_dac5 0 Value={V(out_dac4)/3}\n \n \n;ESUM 4 0 VALUE = { (V(1)+V(3))/5 }\n;Edac out_dac 0 VALUE = { V(in[0])*1 + V(in[1])*2 + V(in[2])*4 + V(in[3])*8}\n \nEdac1 out_dacX 0 VALUE = { (V(in[0])/{Vcc})*1 + (V(in[1])/{Vcc})*2 + (V(in[2])/{Vcc})*4 + (V(in[3])/{Vcc})*8}\nEdac2 out_dac 0 VALUE = { (  (V(in[0])/{Vcc})*1 + (V(in[1])/{Vcc})*2 + (V(in[2])/{Vcc})*4 + (V(in[3])/{Vcc})*8  ) * quant_step_size}\n.param quant_step_size 15/16\n \nEcmp out_cmp 0 VALUE = { if( V(out_dac5)>2.5, 1, 0 )}\n;Xop1 out_dac5 ref out_cmp_opamp OPAMP1 PARAMS: fc=10k Aol=1\n;Xop1 out_dac5 0 out_cmp_opamp OPAMP1 PARAMS: fc=10k Aol=1\nXop1 out_dac5 ref out_cmp_opamp COMP1  ;PARAMS: fc=10k Aol=1\n \nVref ref 0 2.5\n \n \nC0 in[0] 0 10p\nC1 in[1] 0 20p\nC2 in[2] 0 10p\nC3 in[3] 0 20p\n \nVclk clk 0 PULSE( {Voff} {Vcc}  {T/4} {tt} {tt} {T*1/2/2} {T*1/2})\n \n.MODEL          SRES            VSWITCH(VON=5V VOFF=0V RON=10 ROFF=10MEG)\n; \n.tran 24m\n \n*                   pos neg out\n.SUBCKT OPAMP1      1   2   6 PARAMS: fc=100 Aol=100k\n* INPUT IMPEDANCE\nRIN             1               2               10MEG\n* DC GAIN=100K AND POLE1=100HZ\n* UNITY GAIN = DCGAIN X POLE1 = 10MHZ\nEGAIN           3 0             1 2             {Aol}\nRP1             3               4               1K\n;CP1             4               0               1.5915UF\nCP1             4               0               {1/(2*pi*1k*fc)}\n* OUTPUT BUFFER AND RESISTANCE\nEBUFFER         5 0             4 0             1\nROUT            5               6               10\n.ENDS\n \n \n.SUBCKT COMP1  1 2 5\n* TERMINALS: 1-INPUT+, 2-INPUT-, 5-OUTPUT\n* DIFF AMP WITH HYSTERESIS\nEDIFF           3               0               VALUE = { V(1) - V(2) + V(5)/500 }\n* LOW-PASS FILTER\nRP1             3               4               200\nCP1             4               0               100PF\n* LIMITER\nEOUT            5               0               TABLE {V(4)} = (-1MV 0V) (1MV, 5V) \n.ENDS
TEXT 168 400 Left 2 ;fullscale/(2**n-1) = fullscale/(16-1) = fullscale/(15) = Vcc/15 = 5V/15 = 333.333mV
